V1 N001 0 10
R1 N001 0 1e+4
R2 N001 N002 2e+4
R3 N003 0 3e+4
L1 N003 N002 5
C1 N001 N003 1
C2 N002 0 0.5
.backanno
.end
