V1 N001 0 10
R1 N001 0 10K
R2 N001 N002 20K
R?0 N003 0 30K
L1 N003 N002 5
C1 N001 N003 1
C2 N002 0 0.5
.backanno
.end
