V1 N001 0 5
R1 N002 N001 10
R2 N003 N002 100
R3 N003 0 1000
C1 N001 0 1
C2 N002 0 2
C3 N003 0 3
.backanno
.end
